Version 4.1
SHEET 1 3752 932
WIRE -800 -1360 -1056 -1360
WIRE -704 -1360 -800 -1360
WIRE -336 -1360 -704 -1360
WIRE -160 -1360 -160 -1472
WIRE -160 -1360 -336 -1360
WIRE 144 -1360 -160 -1360
WIRE 576 -1360 144 -1360
WIRE -704 -1200 -704 -1360
WIRE 144 -1088 144 -1360
WIRE -704 -1072 -704 -1120
WIRE -608 -1072 -704 -1072
WIRE -336 -1072 -336 -1360
WIRE 576 -1056 576 -1360
WIRE -800 -912 -800 -1360
WIRE -640 -912 -800 -912
WIRE -640 -896 -640 -912
WIRE -608 -896 -608 -1072
WIRE -640 -624 -640 -704
WIRE -640 -624 -880 -624
WIRE -336 -576 -336 -992
WIRE -32 -576 -336 -576
WIRE 144 -576 144 -1008
WIRE 144 -576 0 -576
WIRE -608 -544 -608 -704
WIRE -64 -544 -608 -544
WIRE 576 -544 576 -976
WIRE 576 -544 32 -544
WIRE -704 -512 -704 -1072
WIRE -96 -512 -704 -512
WIRE -880 -480 -880 -624
WIRE -128 -480 -880 -480
WIRE -1056 -448 -1056 -1360
WIRE -160 -448 -1056 -448
WIRE 1488 -368 1216 -368
WIRE 2000 -368 1728 -368
WIRE 2112 -368 2000 -368
WIRE -128 -336 -128 -480
WIRE 1488 -336 -128 -336
WIRE 1968 -336 1728 -336
WIRE 2112 -336 1968 -336
WIRE -160 -304 -160 -448
WIRE 1488 -304 -160 -304
WIRE 1920 -304 1728 -304
WIRE 2112 -304 1920 -304
WIRE -32 -272 -32 -576
WIRE 1488 -272 -32 -272
WIRE 1888 -272 1728 -272
WIRE 2112 -272 1888 -272
WIRE 0 -240 0 -576
WIRE 1488 -240 0 -240
WIRE 1856 -240 1728 -240
WIRE 2112 -240 1856 -240
WIRE 32 -208 32 -544
WIRE 1488 -208 32 -208
WIRE 1824 -208 1728 -208
WIRE 2112 -208 1824 -208
WIRE 1488 -176 592 -176
WIRE 1792 -176 1728 -176
WIRE 2112 -176 1792 -176
WIRE 1488 -144 1344 -144
WIRE 1760 -144 1728 -144
WIRE 2112 -144 1760 -144
WIRE -128 -112 -128 -336
WIRE 272 -112 -128 -112
WIRE 1168 -112 352 -112
WIRE -96 -64 -96 -512
WIRE 1616 -64 -96 -64
WIRE -96 -48 -96 -64
WIRE 1104 -48 -96 -48
WIRE 1328 16 864 16
WIRE 592 32 592 -176
WIRE 640 32 592 32
WIRE -160 64 -160 -304
WIRE 640 64 -160 64
WIRE 1104 64 1104 -48
WIRE 1616 64 1616 -64
WIRE 1760 80 1760 -144
WIRE 1760 80 1712 80
WIRE 640 96 -592 96
WIRE 864 96 864 16
WIRE 1072 96 864 96
WIRE 1168 112 1168 -112
WIRE 1168 112 1152 112
WIRE 1216 112 1216 -368
WIRE 1216 112 1168 112
WIRE 1792 112 1792 -176
WIRE 1792 112 1712 112
WIRE -128 128 -128 -112
WIRE 640 128 -128 128
WIRE 1072 128 784 128
WIRE 1328 144 1328 16
WIRE 1552 144 1328 144
WIRE 1824 144 1824 -208
WIRE 1824 144 1712 144
WIRE -96 160 -96 -48
WIRE 640 160 -96 160
WIRE -592 176 -592 96
WIRE 1856 176 1856 -240
WIRE 1856 176 1712 176
WIRE -64 192 -64 -544
WIRE 640 192 -64 192
WIRE 1888 208 1888 -272
WIRE 1888 208 1712 208
WIRE 640 224 224 224
WIRE 1920 240 1920 -304
WIRE 1920 240 1712 240
WIRE -128 272 -128 128
WIRE 80 272 -128 272
WIRE 224 272 224 224
WIRE 224 272 160 272
WIRE 320 272 224 272
WIRE 448 272 400 272
WIRE 1968 272 1968 -336
WIRE 1968 272 1712 272
WIRE 2000 304 2000 -368
WIRE 2000 304 1712 304
WIRE -592 368 -592 256
WIRE -160 368 -160 64
WIRE -160 368 -592 368
WIRE 448 368 448 272
WIRE 448 368 -160 368
WIRE 1088 368 1088 160
WIRE 1088 368 448 368
WIRE 1104 368 1104 160
WIRE 1104 368 1088 368
WIRE 1568 368 1568 336
WIRE 1568 368 1104 368
WIRE -64 592 -64 192
WIRE 1648 592 1648 336
WIRE 1648 592 -64 592
FLAG 2112 -368 dac0
FLAG 2112 -336 dac1
FLAG 2112 -304 dac2
FLAG 2112 -272 dac3
FLAG 2112 -240 dac4
FLAG 2112 -208 dac5
FLAG 2112 -176 dac6
FLAG 2112 -144 dac7
FLAG 1344 -144 done
FLAG -160 -1472 0
SYMBOL voltage -592 160 R0
WINDOW 123 0 0 Left 0
WINDOW 39 0 0 Left 0
WINDOW 3 -93 114 Left 2
SYMATTR Value SINE(1.65 1.5 100)
SYMATTR InstName V_sin
SYMBOL SAR_ADC_CORE 1600 -256 R0
SYMATTR InstName U1
SYMBOL DAC8_R2R 1648 160 M0
SYMATTR InstName U2
SYMBOL Comparators\\LT1011 1104 112 R0
SYMATTR InstName comparator
SYMBOL res 176 256 R90
WINDOW 0 0 56 VBottom 2
WINDOW 3 32 56 VTop 2
SYMATTR InstName R1
SYMATTR Value 10k
SYMBOL res 416 256 R90
WINDOW 0 0 56 VBottom 2
WINDOW 3 32 56 VTop 2
SYMATTR InstName R2
SYMATTR Value 10k
SYMBOL voltage -704 -1104 M180
WINDOW 123 0 0 Left 0
WINDOW 39 0 0 Left 0
SYMATTR InstName VCC1
SYMATTR Value 15V
SYMBOL voltage -336 -976 M180
WINDOW 3 20 120 Left 2
WINDOW 123 0 0 Left 0
WINDOW 39 0 0 Left 0
SYMATTR Value PULSE(0 {vcc} 0 1n 1n 49.9u 100u)
SYMATTR InstName Vclk1
SYMBOL voltage 576 -960 M180
WINDOW 3 70 58 Left 2
WINDOW 123 0 0 Left 0
WINDOW 39 0 0 Left 0
SYMATTR Value PWL(0 0 50u 0 60u {vcc})
SYMATTR InstName Vsys_clr1
SYMBOL voltage 144 -992 M180
WINDOW 3 25 118 Left 2
WINDOW 123 0 0 Left 0
WINDOW 39 0 0 Left 0
SYMATTR Value PULSE(0 {vcc} 1u 1n 1n 150u 2m)
SYMATTR InstName Vstart1
SYMBOL SH 704 128 R0
SYMATTR InstName SH
SYMBOL res 368 -128 R90
WINDOW 0 0 56 VBottom 2
WINDOW 3 32 56 VTop 2
SYMATTR InstName R3
SYMATTR Value 4.7k
SYMBOL power_management -624 -800 M90
SYMATTR InstName X1
TEXT -120 688 Left 2 !.param vcc=5 speed=1.0 tripdt=1n
TEXT -112 752 Left 2 !.tran 40m
TEXT -112 816 Left 2 !.include SAR_ADC_CORE.lib
